data_Tc2O7_oP36
_audit_creation_method FINDSYM
 
_cell_length_a    13.8517235200
_cell_length_b    7.6004080100
_cell_length_c    5.7620222600
_cell_angle_alpha 90.0000000000
_cell_angle_beta  90.0000000000
_cell_angle_gamma 90.0000000000
 
_symmetry_space_group_name_H-M "P 21/b 21/c 21/a"
_symmetry_Int_Tables_number 61
_space_group.reference_setting '061:-P 2ac 2ab'
_space_group.transform_Pp_abc a,b,c;0,0,0
 
loop_
_space_group_symop_id
_space_group_symop_operation_xyz
1 x,y,z
2 x+1/2,-y+1/2,-z
3 -x,y+1/2,-z+1/2
4 -x+1/2,-y,z+1/2
5 -x,-y,-z
6 -x+1/2,y+1/2,z
7 x,-y+1/2,z+1/2
8 x+1/2,y,-z+1/2
 
loop_
_atom_site_label
_atom_site_type_symbol
_atom_site_symmetry_multiplicity
_atom_site_Wyckoff_label
_atom_site_fract_x
_atom_site_fract_y
_atom_site_fract_z
_atom_site_occupancy
Tc1 Tc   8 c 0.10434 0.01417  0.20006 1.00000
O1  O    4 a 0.00000 0.00000  0.00000 1.00000
O2  O    8 c 0.11479 0.21868  0.30739 1.00000
O3  O    8 c 0.20728 -0.04174 0.06720 1.00000
O4  O    8 c 0.08500 0.87483  0.42224 1.00000
