data_Mn3O4_tI28
_audit_creation_method FINDSYM
 
_cell_length_a    5.7962219844
_cell_length_b    5.7853282988
_cell_length_c    9.4527598813
_cell_angle_alpha 90.0000000000
_cell_angle_beta  90.0000000000
_cell_angle_gamma 90.0000000000
 
_symmetry_space_group_name_H-M "I 21/m 21/m 21/a"
_symmetry_Int_Tables_number 74
_space_group.reference_setting '074:-I 2b 2'
_space_group.transform_Pp_abc a,b,c;0,0,0
 
loop_
_space_group_symop_id
_space_group_symop_operation_xyz
1 x,y,z
2 x,-y,-z
3 -x,y+1/2,-z
4 -x,-y+1/2,z
5 -x,-y,-z
6 -x,y,z
7 x,-y+1/2,z
8 x,y+1/2,-z
9 x+1/2,y+1/2,z+1/2
10 x+1/2,-y+1/2,-z+1/2
11 -x+1/2,y,-z+1/2
12 -x+1/2,-y,z+1/2
13 -x+1/2,-y+1/2,-z+1/2
14 -x+1/2,y+1/2,z+1/2
15 x+1/2,-y,z+1/2
16 x+1/2,y,-z+1/2
 
loop_
_atom_site_label
_atom_site_type_symbol
_atom_site_symmetry_multiplicity
_atom_site_Wyckoff_label
_atom_site_fract_x
_atom_site_fract_y
_atom_site_fract_z
_atom_site_occupancy
Mn1_a Mn   4 e 0.00000 0.25000 0.87572 1.00000
Mn2_b Mn   4 b 0.00000 0.00000 0.50000 1.00000
Mn3_a Mn   4 c 0.25000 0.25000 0.25000 1.00000
O1  O    8 h 0.00000 0.02838 0.25890 1.00000
O2  O    8 i 0.22049 0.25000 0.49117 1.00000
