data_V2O3_mS20
_audit_creation_method FINDSYM
 
_cell_length_a    5.5091549600
_cell_length_b    5.0786383200
_cell_length_c    7.3094457100
_cell_angle_alpha 90.0000000000
_cell_angle_beta  95.7481870000
_cell_angle_gamma 90.0000000000
 
_symmetry_space_group_name_H-M "P 1 2/c 1"
_symmetry_Int_Tables_number 13
_space_group.reference_setting '013:-P 2yc'
_space_group.transform_Pp_abc a,b,c;0,0,0
 
loop_
_space_group_symop_id
_space_group_symop_operation_xyz
1 x,y,z
2 -x,y,-z+1/2
3 -x,-y,-z
4 x,-y,z+1/2
 
loop_
_atom_site_label
_atom_site_type_symbol
_atom_site_symmetry_multiplicity
_atom_site_Wyckoff_label
_atom_site_fract_x
_atom_site_fract_y
_atom_site_fract_z
_atom_site_occupancy
V1_a V    4 g 0.29470 -0.00222 0.84962  1.00000
V2_b V   4 g 0.79470 0.49777  0.34962  1.00000
O1  O    4 g 0.14530 0.65034  0.40133  1.00000
O2  O    4 g 0.64532 0.15032  -0.09868 1.00000
O3  O    2 e 0.00000 0.18781  0.25000  1.00000
O4  O    2 f 0.50000 0.31221  0.25000  1.00000
