data_lambda_Ti3O5_mS32
_audit_creation_method FINDSYM
 
_cell_length_a    9.9126957193
_cell_length_b    3.7802571270
_cell_length_c    10.1194065700
_cell_angle_alpha 90.0000000000
_cell_angle_beta  90.4151369869
_cell_angle_gamma 90.0000000000
 
_symmetry_space_group_name_H-M "C 1 m 1"
_symmetry_Int_Tables_number 8
_space_group.reference_setting '008:C -2y'
_space_group.transform_Pp_abc a,b,c;0,0,0
 
loop_
_space_group_symop_id
_space_group_symop_operation_xyz
1 x,y,z
2 x,-y,z
3 x+1/2,y+1/2,z
4 x+1/2,-y+1/2,z
 
loop_
_atom_site_label
_atom_site_type_symbol
_atom_site_symmetry_multiplicity
_atom_site_Wyckoff_label
_atom_site_fract_x
_atom_site_fract_y
_atom_site_fract_z
_atom_site_occupancy
Ti1_a Ti   2 a 0.63549 0.00000 -0.05741 1.00000
Ti2_b Ti   2 a 0.36451 0.00000 0.05741  1.00000
Ti3_b Ti   2 a 0.30635 0.00000 0.75577  1.00000
Ti4_a Ti   2 a 0.69365 0.00000 0.24423  1.00000
Ti5 Ti   2 a 0.63386 0.00000 0.56782  1.00000
Ti6 Ti   2 a 0.36614 0.00000 0.43218  1.00000
O1  O    2 a 0.45688 0.00000 0.61229  1.00000
O2  O    2 a 0.54312 0.00000 0.38771  1.00000
O3  O    2 a 0.18497 0.00000 -0.07314 1.00000
O4  O    2 a 0.81503 0.00000 0.07314  1.00000
O5  O    2 a 0.72439 0.00000 0.73742  1.00000
O6  O    2 a 0.27561 0.00000 0.26258  1.00000
O7  O    2 a 0.55240 0.00000 0.12335  1.00000
O8  O    2 a 0.44760 0.00000 0.87665  1.00000
O9  O    2 a 0.19043 0.00000 0.56357  1.00000
O10 O    2 a 0.80957 0.00000 0.43643  1.00000
