data_La2O3_hP5
_audit_creation_method FINDSYM
 
_cell_length_a    3.9638171000
_cell_length_b    3.9638171000
_cell_length_c    6.1867611900
_cell_angle_alpha 90.0000000000
_cell_angle_beta  90.0000000000
_cell_angle_gamma 120.0000000000
 
_symmetry_space_group_name_H-M "P -3 2/m 1"
_symmetry_Int_Tables_number 164
_space_group.reference_setting '164:-P 3 2"'
_space_group.transform_Pp_abc a,b,c;0,0,0
 
loop_
_space_group_symop_id
_space_group_symop_operation_xyz
1 x,y,z
2 -y,x-y,z
3 -x+y,-x,z
4 x-y,-y,-z
5 y,x,-z
6 -x,-x+y,-z
7 -x,-y,-z
8 y,-x+y,-z
9 x-y,x,-z
10 -x+y,y,z
11 -y,-x,z
12 x,x-y,z
 
loop_
_atom_site_label
_atom_site_type_symbol
_atom_site_symmetry_multiplicity
_atom_site_Wyckoff_label
_atom_site_fract_x
_atom_site_fract_y
_atom_site_fract_z
_atom_site_occupancy
La1 La   2 d 0.33333 0.66667 0.24848 1.00000
O1  O    2 d 0.33333 0.66667 0.64416 1.00000
O2  O    1 a 0.00000 0.00000 0.00000 1.00000
