data_Rh2O3_oP40
_audit_creation_method FINDSYM
 
_cell_length_a    5.1534470000
_cell_length_b    5.4539022900
_cell_length_c    14.7258119900
_cell_angle_alpha 90.0000000000
_cell_angle_beta  90.0000000000
_cell_angle_gamma 90.0000000000
 
_symmetry_space_group_name_H-M "P 21/b 21/c 21/a"
_symmetry_Int_Tables_number 61
_space_group.reference_setting '061:-P 2ac 2ab'
_space_group.transform_Pp_abc a,b,c;0,0,0
 
loop_
_space_group_symop_id
_space_group_symop_operation_xyz
1 x,y,z
2 x+1/2,-y+1/2,-z
3 -x,y+1/2,-z+1/2
4 -x+1/2,-y,z+1/2
5 -x,-y,-z
6 -x+1/2,y+1/2,z
7 x,-y+1/2,z+1/2
8 x+1/2,y,-z+1/2
 
loop_
_atom_site_label
_atom_site_type_symbol
_atom_site_symmetry_multiplicity
_atom_site_Wyckoff_label
_atom_site_fract_x
_atom_site_fract_y
_atom_site_fract_z
_atom_site_occupancy
Rh1 Rh   8 c 0.00098  0.17937  0.07603 1.00000
Rh2 Rh   8 c -0.00075 0.75064  0.17799 1.00000
O1  O    8 c 0.14365  0.11001  0.20284 1.00000
O2  O    8 c 0.69894  -0.03183 0.12462 1.00000
O3  O    8 c 0.15040  0.84112  0.05241 1.00000
