data_HfO2_mP12
_audit_creation_method FINDSYM
 
_cell_length_a    5.1268727300
_cell_length_b    5.2350424900
_cell_length_c    5.2437926300
_cell_angle_alpha 90.0000000000
_cell_angle_beta  90.0000000000
_cell_angle_gamma 90.0000000000
 
_symmetry_space_group_name_H-M "P 1 21/c 1"
_symmetry_Int_Tables_number 14
_space_group.reference_setting '014:-P 2ybc'
_space_group.transform_Pp_abc a,b,c;0,0,0
 
loop_
_space_group_symop_id
_space_group_symop_operation_xyz
1 x,y,z
2 -x,y+1/2,-z+1/2
3 -x,-y,-z
4 x,-y+1/2,z+1/2
 
loop_
_atom_site_label
_atom_site_type_symbol
_atom_site_symmetry_multiplicity
_atom_site_Wyckoff_label
_atom_site_fract_x
_atom_site_fract_y
_atom_site_fract_z
_atom_site_occupancy
Hf1 Hf   4 e 0.27546 0.53719 0.70954  1.00000
O1  O    4 e 0.08188 0.85386 0.82849  1.00000
O2  O    4 e 0.44921 0.25931 -0.01514 1.00000
