data_IrO2_tP6
_audit_creation_method FINDSYM
 
_cell_length_a    6.3599406281
_cell_length_b    6.3599415161
_cell_length_c    3.1909661100
_cell_angle_alpha 90.0000000000
_cell_angle_beta  90.0000000000
_cell_angle_gamma 90.0000000000
 
_symmetry_space_group_name_H-M "C 2/m 2/m 2/m"
_symmetry_Int_Tables_number 65
_space_group.reference_setting '065:-C 2 2'
_space_group.transform_Pp_abc a,b,c;0,0,0
 
loop_
_space_group_symop_id
_space_group_symop_operation_xyz
1 x,y,z
2 x,-y,-z
3 -x,y,-z
4 -x,-y,z
5 -x,-y,-z
6 -x,y,z
7 x,-y,z
8 x,y,-z
9 x+1/2,y+1/2,z
10 x+1/2,-y+1/2,-z
11 -x+1/2,y+1/2,-z
12 -x+1/2,-y+1/2,z
13 -x+1/2,-y+1/2,-z
14 -x+1/2,y+1/2,z
15 x+1/2,-y+1/2,z
16 x+1/2,y+1/2,-z
 
loop_
_atom_site_label
_atom_site_type_symbol
_atom_site_symmetry_multiplicity
_atom_site_Wyckoff_label
_atom_site_fract_x
_atom_site_fract_y
_atom_site_fract_z
_atom_site_occupancy
Ir1_a Ir   2 a 0.00000 0.00000 0.00000 1.00000
Ir2_b Ir   2 c 0.50000 0.00000 0.50000 1.00000
O1  O    4 i 0.00000 0.30604 0.00000 1.00000
O2  O    4 h 0.80604 0.00000 0.50000 1.00000
