data_WO3_mP16
_audit_creation_method FINDSYM
 
_cell_length_a    5.4162817900
_cell_length_b    5.4442740100
_cell_length_c    7.7311914900
_cell_angle_alpha 90.0000000000
_cell_angle_beta  90.0062390000
_cell_angle_gamma 90.0000000000
 
_symmetry_space_group_name_H-M "P 1 c 1"
_symmetry_Int_Tables_number 7
_space_group.reference_setting '007:P -2yc'
_space_group.transform_Pp_abc a,b,c;0,0,0
 
loop_
_space_group_symop_id
_space_group_symop_operation_xyz
1 x,y,z
2 x,-y,z+1/2
 
loop_
_atom_site_label
_atom_site_type_symbol
_atom_site_symmetry_multiplicity
_atom_site_Wyckoff_label
_atom_site_fract_x
_atom_site_fract_y
_atom_site_fract_z
_atom_site_occupancy
W1 W   2 a 0.00026 -0.04167 -0.00753 1.00000
W2 W   2 a 0.50039 0.45833  0.04734  1.00000
O1 O   2 a 0.24927 0.74561  0.00658  1.00000
O2 O   2 a 0.25139 0.24560  0.03322  1.00000
O3 O   2 a 0.75052 0.74643  0.00658  1.00000
O4 O   2 a 0.75013 0.24644  0.03322  1.00000
O5 O   2 a 0.00031 0.01737  0.76734  1.00000
O6 O   2 a 0.50033 0.48264  0.77246  1.00000
