data_WO3_mP32
_audit_creation_method FINDSYM
 
_cell_length_a    7.4374643600
_cell_length_b    7.7767624800
_cell_length_c    10.8531892629
_cell_angle_alpha 90.0000000000
_cell_angle_beta  133.2565800031
_cell_angle_gamma 90.0000000000
 
_symmetry_space_group_name_H-M "P 1 21/c 1"
_symmetry_Int_Tables_number 14
_space_group.reference_setting '014:-P 2ybc'
_space_group.transform_Pp_abc a,b,c;0,0,0
 
loop_
_space_group_symop_id
_space_group_symop_operation_xyz
1 x,y,z
2 -x,y+1/2,-z+1/2
3 -x,-y,-z
4 x,-y+1/2,z+1/2
 
loop_
_atom_site_label
_atom_site_type_symbol
_atom_site_symmetry_multiplicity
_atom_site_Wyckoff_label
_atom_site_fract_x
_atom_site_fract_y
_atom_site_fract_z
_atom_site_occupancy
W1 W   4 e -0.03222 0.46519  0.21797 1.00000
W2 W   4 e 0.46821  0.46505  0.71803 1.00000
O1 O   4 e 0.74954  0.50039  0.24956 1.00000
O2 O   4 e 0.74965  -0.00036 0.24964 1.00000
O3 O   4 e -0.00658 0.24015  0.24383 1.00000
O4 O   4 e 0.49488  0.24009  0.74446 1.00000
O5 O   4 e 0.24687  0.48189  0.49723 1.00000
O6 O   4 e 0.25243  -0.01743 0.50279 1.00000
