data_HgO_hP6
_audit_creation_method FINDSYM
 
_cell_length_a    3.6103143000
_cell_length_b    3.6103143000
_cell_length_c    8.7036827700
_cell_angle_alpha 90.0000000000
_cell_angle_beta  90.0000000000
_cell_angle_gamma 120.0000000000
 
_symmetry_space_group_name_H-M "P 32 2 1"
_symmetry_Int_Tables_number 154
_space_group.reference_setting '154:P 32 2"'
_space_group.transform_Pp_abc a,b,c;0,0,0
 
loop_
_space_group_symop_id
_space_group_symop_operation_xyz
1 x,y,z
2 -y,x-y,z+2/3
3 -x+y,-x,z+1/3
4 x-y,-y,-z+1/3
5 y,x,-z
6 -x,-x+y,-z+2/3
 
loop_
_atom_site_label
_atom_site_type_symbol
_atom_site_symmetry_multiplicity
_atom_site_Wyckoff_label
_atom_site_fract_x
_atom_site_fract_y
_atom_site_fract_z
_atom_site_occupancy
Hg1 Hg   3 b 0.25615 0.00000 0.16667 1.00000
O1  O    3 a 0.53062 0.00000 0.66667 1.00000
