data_Mn2O3_oP80
_audit_creation_method FINDSYM
 
_cell_length_a    9.3837452100
_cell_length_b    9.4374229100
_cell_length_c    9.4928890100
_cell_angle_alpha 90.0000000000
_cell_angle_beta  90.0000000000
_cell_angle_gamma 90.0000000000
 
_symmetry_space_group_name_H-M "P 21/b 21/c 21/a"
_symmetry_Int_Tables_number 61
_space_group.reference_setting '061:-P 2ac 2ab'
_space_group.transform_Pp_abc a,b,c;0,0,0
 
loop_
_space_group_symop_id
_space_group_symop_operation_xyz
1 x,y,z
2 x+1/2,-y+1/2,-z
3 -x,y+1/2,-z+1/2
4 -x+1/2,-y,z+1/2
5 -x,-y,-z
6 -x+1/2,y+1/2,z
7 x,-y+1/2,z+1/2
8 x+1/2,y,-z+1/2
 
loop_
_atom_site_label
_atom_site_type_symbol
_atom_site_symmetry_multiplicity
_atom_site_Wyckoff_label
_atom_site_fract_x
_atom_site_fract_y
_atom_site_fract_z
_atom_site_occupancy
Mn1_a Mn   4 a 0.00000  0.00000  0.00000  1.00000
Mn2_a Mn   4 b 0.00000  0.00000  0.50000  1.00000
Mn3_b Mn   8 c 0.28210  -0.01545 0.25587  1.00000
Mn4_a Mn   8 c 0.00962  0.23993  0.28467  1.00000
Mn5_b Mn   8 c 0.25758  0.28725  0.00227  1.00000
O1  O    8 c 0.14088  0.15772  -0.08920 1.00000
O2  O    8 c 0.13845  -0.08547 0.12734  1.00000
O3  O    8 c -0.07909 0.12020  0.14595  1.00000
O4  O    8 c 0.61983  0.64284  0.41710  1.00000
O5  O    8 c 0.65028  0.42674  0.62338  1.00000
O6  O    8 c 0.40441  0.64058  0.65105  1.00000
