data_delta_Ti3O5_mS32
_audit_creation_method FINDSYM
 
_cell_length_a    5.1450928700
_cell_length_b    7.1082230500
_cell_length_c    10.0644114000
_cell_angle_alpha 71.3637340000
_cell_angle_beta  89.9985820000
_cell_angle_gamma 89.9968320000
 
_symmetry_space_group_name_H-M "P -1"
_symmetry_Int_Tables_number 2
_space_group.reference_setting '002:-P 1'
_space_group.transform_Pp_abc a,b,c;0,0,0
 
loop_
_space_group_symop_id
_space_group_symop_operation_xyz
1 x,y,z
2 -x,-y,-z
 
loop_
_atom_site_label
_atom_site_type_symbol
_atom_site_symmetry_multiplicity
_atom_site_Wyckoff_label
_atom_site_fract_x
_atom_site_fract_y
_atom_site_fract_z
_atom_site_occupancy
Ti1 Ti   2 i 0.24787  0.84234 0.38233 1.00000
Ti2 Ti   2 i 0.24797  0.15772 0.11765 1.00000
Ti3_a Ti   2 i 0.26467  0.65677 0.11550 1.00000
Ti4_b Ti   2 i 0.26468  0.34322 0.38454 1.00000
Ti5_b Ti   2 i 0.74937  0.75230 0.24521 1.00000
Ti6_a Ti   2 i 0.74939  0.24766 0.25481 1.00000
O1  O    2 i 0.57947  0.71999 0.43304 1.00000
O2  O    2 i 0.57953  0.27999 0.06693 1.00000
O3  O    2 i -0.09491 0.78455 0.05184 1.00000
O4  O    2 i -0.09487 0.21541 0.44816 1.00000
O5  O    2 i 0.10332  0.62522 0.32294 1.00000
O6  O    2 i 0.10335  0.37477 0.17709 1.00000
O7  O    2 i 0.40672  0.89617 0.16517 1.00000
O8  O    2 i 0.40672  0.10384 0.33485 1.00000
O9  O    2 i 0.55743  0.49997 0.24999 1.00000
O10 O    2 i -0.03997 0.00000 0.24999 1.00000
