data_Ti3O5_alfa_oS32
_audit_creation_method FINDSYM
 
_cell_length_a    10.0188379688
_cell_length_b    3.7755643024
_cell_length_c    10.0042729200
_cell_angle_alpha 90.0000000000
_cell_angle_beta  90.1199207333
_cell_angle_gamma 90.0000000000
 
_symmetry_space_group_name_H-M "C 1 m 1"
_symmetry_Int_Tables_number 8
_space_group.reference_setting '008:C -2y'
_space_group.transform_Pp_abc a,b,c;0,0,0
 
loop_
_space_group_symop_id
_space_group_symop_operation_xyz
1 x,y,z
2 x,-y,z
3 x+1/2,y+1/2,z
4 x+1/2,-y+1/2,z
 
loop_
_atom_site_label
_atom_site_type_symbol
_atom_site_symmetry_multiplicity
_atom_site_Wyckoff_label
_atom_site_fract_x
_atom_site_fract_y
_atom_site_fract_z
_atom_site_occupancy
Ti1_a Ti   2 a 0.63535 0.00000 0.43756  1.00000
Ti2_b Ti   2 a 0.36383 0.00000 -0.06240 1.00000
Ti3 Ti   2 a 0.36867 0.00000 0.56268  1.00000
Ti4 Ti   2 a 0.63118 0.00000 0.06276  1.00000
Ti5_b Ti   2 a 0.69428 0.00000 0.75125  1.00000
Ti6_a Ti   2 a 0.30574 0.00000 0.25084  1.00000
O1  O    2 a 0.19030 0.00000 0.43199  1.00000
O2  O    2 a 0.80982 0.00000 -0.06762 1.00000
O3  O    2 a 0.81542 0.00000 0.56985  1.00000
O4  O    2 a 0.18484 0.00000 0.06964  1.00000
O5  O    2 a 0.54058 0.00000 0.61940  1.00000
O6  O    2 a 0.45971 0.00000 0.11931  1.00000
O7  O    2 a 0.44418 0.00000 0.38578  1.00000
O8  O    2 a 0.55565 0.00000 0.88595  1.00000
O9  O    2 a 0.72748 0.00000 0.24201  1.00000
O10 O    2 a 0.27297 0.00000 0.74099  1.00000