data_V2O5_oP14
_audit_creation_method FINDSYM
 
_cell_length_a    11.4547528800
_cell_length_b    3.5496124400
_cell_length_c    4.6245206800
_cell_angle_alpha 90.0000000000
_cell_angle_beta  90.0000000000
_cell_angle_gamma 90.0000000000
 
_symmetry_space_group_name_H-M "P 21/m 21/m 2/n (origin choice 2)"
_symmetry_Int_Tables_number 59
_space_group.reference_setting '059:-P 2ab 2a'
_space_group.transform_Pp_abc a,b,c;0,0,0
 
loop_
_space_group_symop_id
_space_group_symop_operation_xyz
1 x,y,z
2 x+1/2,-y,-z
3 -x,y+1/2,-z
4 -x+1/2,-y+1/2,z
5 -x,-y,-z
6 -x+1/2,y,z
7 x,-y+1/2,z
8 x+1/2,y+1/2,-z
 
loop_
_atom_site_label
_atom_site_type_symbol
_atom_site_symmetry_multiplicity
_atom_site_Wyckoff_label
_atom_site_fract_x
_atom_site_fract_y
_atom_site_fract_z
_atom_site_occupancy
V1 V   4 f 0.10152  0.25000 0.11315  1.00000
O1 O   4 f 0.10478  0.25000 0.44953  1.00000
O2 O   4 f -0.06775 0.25000 -0.01136 1.00000
O3 O   2 a 0.25000  0.25000 0.00634  1.00000
