data_MnO2_oP12
_audit_creation_method FINDSYM
 
_cell_length_a    2.8620277600
_cell_length_b    4.5433383700
_cell_length_c    9.2111647600
_cell_angle_alpha 90.0000000000
_cell_angle_beta  90.0000000000
_cell_angle_gamma 90.0000000000
 
_symmetry_space_group_name_H-M "P m c 21"
_symmetry_Int_Tables_number 26
_space_group.reference_setting '026:P 2c -2'
_space_group.transform_Pp_abc a,b,c;0,0,0
 
loop_
_space_group_symop_id
_space_group_symop_operation_xyz
1 x,y,z
2 -x,-y,z+1/2
3 -x,y,z
4 x,-y,z+1/2
 
loop_
_atom_site_label
_atom_site_type_symbol
_atom_site_symmetry_multiplicity
_atom_site_Wyckoff_label
_atom_site_fract_x
_atom_site_fract_y
_atom_site_fract_z
_atom_site_occupancy
Mn1_a Mn   2 a 0.00000 0.78037  0.13551 1.00000
Mn2_b Mn   2 b 0.50000 0.28038  0.36451 1.00000
O1  O    2 a 0.00000 0.46137  0.46625 1.00000
O2  O    2 b 0.50000 -0.03863 0.03375 1.00000
O3  O    2 a 0.00000 0.07681  0.27816 1.00000
O4  O    2 b 0.50000 0.57676  0.22183 1.00000
