data_WO3_tP16
_audit_creation_method FINDSYM
 
_cell_length_a    5.3097267900
_cell_length_b    5.3097267900
_cell_length_c    8.0406550100
_cell_angle_alpha 90.0000000000
_cell_angle_beta  90.0000000000
_cell_angle_gamma 90.0000000000
 
_symmetry_space_group_name_H-M "P 4/n 21/c 2/c (origin choice 2)"
_symmetry_Int_Tables_number 130
_space_group.reference_setting '130:-P 4a 2ac'
_space_group.transform_Pp_abc a,b,c;0,0,0
 
loop_
_space_group_symop_id
_space_group_symop_operation_xyz
1 x,y,z
2 x+1/2,-y,-z+1/2
3 -x,y+1/2,-z+1/2
4 -x+1/2,-y+1/2,z
5 -y,-x,-z+1/2
6 -y+1/2,x,z
7 y,-x+1/2,z
8 y+1/2,x+1/2,-z+1/2
9 -x,-y,-z
10 -x+1/2,y,z+1/2
11 x,-y+1/2,z+1/2
12 x+1/2,y+1/2,-z
13 y,x,z+1/2
14 y+1/2,-x,-z
15 -y,x+1/2,-z
16 -y+1/2,-x+1/2,z+1/2
 
loop_
_atom_site_label
_atom_site_type_symbol
_atom_site_symmetry_multiplicity
_atom_site_Wyckoff_label
_atom_site_fract_x
_atom_site_fract_y
_atom_site_fract_z
_atom_site_occupancy
W1 W   4 c 0.25000  0.25000 0.78601 1.00000
O1 O   4 c 0.25000  0.25000 0.50143 1.00000
O2 O   8 f -0.00953 0.00953 0.25000 1.00000
