data_V2O5_oP28
_audit_creation_method FINDSYM
 
_cell_length_a    10.1151966300
_cell_length_b    3.5667584100
_cell_length_c    10.5030110800
_cell_angle_alpha 90.0000000000
_cell_angle_beta  90.0000000000
_cell_angle_gamma 90.0000000000
 
_symmetry_space_group_name_H-M "P 21/n 21/m 21/a"
_symmetry_Int_Tables_number 62
_space_group.reference_setting '062:-P 2ac 2n'
_space_group.transform_Pp_abc a,b,c;0,0,0
 
loop_
_space_group_symop_id
_space_group_symop_operation_xyz
1 x,y,z
2 x+1/2,-y+1/2,-z+1/2
3 -x,y+1/2,-z
4 -x+1/2,-y,z+1/2
5 -x,-y,-z
6 -x+1/2,y+1/2,z+1/2
7 x,-y+1/2,z
8 x+1/2,y,-z+1/2
 
loop_
_atom_site_label
_atom_site_type_symbol
_atom_site_symmetry_multiplicity
_atom_site_Wyckoff_label
_atom_site_fract_x
_atom_site_fract_y
_atom_site_fract_z
_atom_site_occupancy
V1 V   4 c 0.37503  0.25000 0.50633 1.00000
V2 V   4 c 0.07376  0.25000 0.59682 1.00000
O1 O   4 c 0.24671  0.25000 0.62284 1.00000
O2 O   4 c 0.50660  0.25000 0.76987 1.00000
O3 O   4 c 0.29840  0.25000 0.37812 1.00000
O4 O   4 c 0.57104  0.25000 0.47135 1.00000
O5 O   4 c -0.06401 0.25000 0.46167 1.00000
