data_Ti3O5_beta_mS32
_audit_creation_method FINDSYM
 
_cell_length_a    10.0400997899
_cell_length_b    3.8248727530
_cell_length_c    9.4860918900
_cell_angle_alpha 90.0000000000
_cell_angle_beta  91.8977021543
_cell_angle_gamma 90.0000000000
 
_symmetry_space_group_name_H-M "C 1 m 1"
_symmetry_Int_Tables_number 8
_space_group.reference_setting '008:C -2y'
_space_group.transform_Pp_abc a,b,c;0,0,0
 
loop_
_space_group_symop_id
_space_group_symop_operation_xyz
1 x,y,z
2 x,-y,z
3 x+1/2,y+1/2,z
4 x+1/2,-y+1/2,z
 
loop_
_atom_site_label
_atom_site_type_symbol
_atom_site_symmetry_multiplicity
_atom_site_Wyckoff_label
_atom_site_fract_x
_atom_site_fract_y
_atom_site_fract_z
_atom_site_occupancy
Ti1_a Ti   2 a 0.13139  0.00000 0.04521  1.00000
Ti2_b Ti   2 a 0.86914  0.00000 -0.04380 1.00000
Ti3_a Ti   2 a 0.78064  0.00000 0.26092  1.00000
Ti4 Ti   2 a 0.21750  0.00000 0.73887  1.00000
Ti5 Ti   2 a 0.07093  0.00000 0.36904  1.00000
Ti6_b Ti   2 a -0.06441 0.00000 0.64054  1.00000
O1  O    2 a 0.68387  0.00000 0.05663  1.00000
O2  O    2 a 0.31869  0.00000 -0.06491 1.00000
O3  O    2 a 0.22356  0.00000 0.24189  1.00000
O4  O    2 a 0.75365  0.00000 0.75791  1.00000
O5  O    2 a 0.60010  0.00000 0.35588  1.00000
O6  O    2 a 0.39136  0.00000 0.65545  1.00000
O7  O    2 a -0.03881 0.00000 0.15189  1.00000
O8  O    2 a 0.04497  0.00000 0.84157  1.00000
O9  O    2 a 0.89546  0.00000 0.42607  1.00000
O10 O    2 a 0.12196  0.00000 0.56684  1.00000
