data_TcO2_mP12
_audit_creation_method FINDSYM
 
_cell_length_a    5.5654069600
_cell_length_b    4.6106621600
_cell_length_c    5.5754367200
_cell_angle_alpha 90.0000000000
_cell_angle_beta  111.5553380000
_cell_angle_gamma 90.0000000000
 
_symmetry_space_group_name_H-M "P 1 21 1"
_symmetry_Int_Tables_number 4
_space_group.reference_setting '004:P 2yb'
_space_group.transform_Pp_abc a,b,c;0,0,0
 
loop_
_space_group_symop_id
_space_group_symop_operation_xyz
1 x,y,z
2 -x,y+1/2,-z
 
loop_
_atom_site_label
_atom_site_type_symbol
_atom_site_symmetry_multiplicity
_atom_site_Wyckoff_label
_atom_site_fract_x
_atom_site_fract_y
_atom_site_fract_z
_atom_site_occupancy
O1  O    2 a -0.09810 0.80848  0.84530  1.00000
O2  O    2 a 0.09810  0.19152  0.65470  1.00000
O3  O    2 a 0.59812  0.30836  0.65485  1.00000
O4  O    2 a 0.40189  0.69164  0.84515  1.00000
Tc1_a Tc   2 a 0.74997  -0.00010 0.50001  1.00000
Tc2_b Tc   2 a 0.25003  0.00009  -0.00001 1.00000
