data_ZrO2_tP6
_audit_creation_method FINDSYM
 
_cell_length_a    3.6024114700
_cell_length_b    3.6024114700
_cell_length_c    5.1696063500
_cell_angle_alpha 90.0000000000
_cell_angle_beta  90.0000000000
_cell_angle_gamma 90.0000000000
 
_symmetry_space_group_name_H-M "P 42/n 21/m 2/c (origin choice 2)"
_symmetry_Int_Tables_number 137
_space_group.reference_setting '137:-P 4ac 2a'
_space_group.transform_Pp_abc a,b,c;0,0,0
 
loop_
_space_group_symop_id
_space_group_symop_operation_xyz
1 x,y,z
2 x+1/2,-y,-z
3 -x,y+1/2,-z
4 -x+1/2,-y+1/2,z
5 -y,-x,-z+1/2
6 -y+1/2,x,z+1/2
7 y,-x+1/2,z+1/2
8 y+1/2,x+1/2,-z+1/2
9 -x,-y,-z
10 -x+1/2,y,z
11 x,-y+1/2,z
12 x+1/2,y+1/2,-z
13 y,x,z+1/2
14 y+1/2,-x,-z+1/2
15 -y,x+1/2,-z+1/2
16 -y+1/2,-x+1/2,z+1/2
 
loop_
_atom_site_label
_atom_site_type_symbol
_atom_site_symmetry_multiplicity
_atom_site_Wyckoff_label
_atom_site_fract_x
_atom_site_fract_y
_atom_site_fract_z
_atom_site_occupancy
Zr1 Zr   2 b 0.75000 0.25000 0.25000  1.00000
O1  O    4 d 0.25000 0.25000 -0.04084 1.00000
