data_Ti2O3_hR10_II
_audit_creation_method FINDSYM
 
_cell_length_a    9.0706795674
_cell_length_b    5.2369592900
_cell_length_c    5.4180569100
_cell_angle_alpha 90.0000000000
_cell_angle_beta  123.9212168094
_cell_angle_gamma 90.0000000000
 
_symmetry_space_group_name_H-M "C 1 c 1"
_symmetry_Int_Tables_number 9
_space_group.reference_setting '009:C -2yc'
_space_group.transform_Pp_abc a,b,c;0,0,0
 
loop_
_space_group_symop_id
_space_group_symop_operation_xyz
1 x,y,z
2 x,-y,z+1/2
3 x+1/2,y+1/2,z
4 x+1/2,-y+1/2,z+1/2
 
loop_
_atom_site_label
_atom_site_type_symbol
_atom_site_symmetry_multiplicity
_atom_site_Wyckoff_label
_atom_site_fract_x
_atom_site_fract_y
_atom_site_fract_z
_atom_site_occupancy
Ti1_a Ti   4 a 0.10093 0.25065 0.55144  1.00000
Ti2_b Ti   4 a 0.89907 0.25064 -0.05141 1.00000
O1  O    4 a 0.50000 0.44846 0.24999  1.00000
O2  O    4 a 0.15337 0.40711 0.24730  1.00000
O3  O    4 a 0.84662 0.40712 0.25268  1.00000