data_OsO4_mS20
_audit_creation_method FINDSYM
 
_cell_length_a    9.5139241736
_cell_length_b    4.5719813486
_cell_length_c    8.6315023200
_cell_angle_alpha 90.0000000000
_cell_angle_beta  116.5812044619
_cell_angle_gamma 90.0000000000
 
_symmetry_space_group_name_H-M "C 1 2/c 1"
_symmetry_Int_Tables_number 15
_space_group.reference_setting '015:-C 2yc'
_space_group.transform_Pp_abc a,b,c;0,0,0
 
loop_
_space_group_symop_id
_space_group_symop_operation_xyz
1 x,y,z
2 -x,y,-z+1/2
3 -x,-y,-z
4 x,-y,z+1/2
5 x+1/2,y+1/2,z
6 -x+1/2,y+1/2,-z+1/2
7 -x+1/2,-y+1/2,-z
8 x+1/2,-y+1/2,z+1/2
 
loop_
_atom_site_label
_atom_site_type_symbol
_atom_site_symmetry_multiplicity
_atom_site_Wyckoff_label
_atom_site_fract_x
_atom_site_fract_y
_atom_site_fract_z
_atom_site_occupancy
Os1 Os   4 e 0.00000 0.25139 0.25000 1.00000
O1  O    8 f 0.11606 0.03558 0.19434 1.00000
O2  O    8 f 0.11432 0.46731 0.42104 1.00000
