data_Ag6O2_hP8
_audit_creation_method FINDSYM
 
_cell_length_a    5.3558826900
_cell_length_b    5.3558826900
_cell_length_c    4.9247100400
_cell_angle_alpha 90.0000000000
_cell_angle_beta  90.0000000000
_cell_angle_gamma 120.0000000000
 
_symmetry_space_group_name_H-M "P -3 1 2/m"
_symmetry_Int_Tables_number 162
_space_group.reference_setting '162:-P 3 2'
_space_group.transform_Pp_abc a,b,c;0,0,0
 
loop_
_space_group_symop_id
_space_group_symop_operation_xyz
1 x,y,z
2 -y,x-y,z
3 -x+y,-x,z
4 x,x-y,-z
5 -x+y,y,-z
6 -y,-x,-z
7 -x,-y,-z
8 y,-x+y,-z
9 x-y,x,-z
10 -x,-x+y,z
11 x-y,-y,z
12 y,x,z
 
loop_
_atom_site_label
_atom_site_type_symbol
_atom_site_symmetry_multiplicity
_atom_site_Wyckoff_label
_atom_site_fract_x
_atom_site_fract_y
_atom_site_fract_z
_atom_site_occupancy
Ag1 Ag   6 k 0.30984 0.00000 0.22501 1.00000
O1  O    2 d 0.33333 0.66667 0.50000 1.00000
