data_Nb2O5_mS28
_audit_creation_method FINDSYM
 
_cell_length_a    12.8207356724
_cell_length_b    4.9107519609
_cell_length_c    5.6094619600
_cell_angle_alpha 90.0000000000
_cell_angle_beta  104.7801038029
_cell_angle_gamma 90.0000000000
 
_symmetry_space_group_name_H-M "C 1 2/c 1"
_symmetry_Int_Tables_number 15
_space_group.reference_setting '015:-C 2yc'
_space_group.transform_Pp_abc a,b,c;0,0,0
 
loop_
_space_group_symop_id
_space_group_symop_operation_xyz
1 x,y,z
2 -x,y,-z+1/2
3 -x,-y,-z
4 x,-y,z+1/2
5 x+1/2,y+1/2,z
6 -x+1/2,y+1/2,-z+1/2
7 -x+1/2,-y+1/2,-z
8 x+1/2,-y+1/2,z+1/2
 
loop_
_atom_site_label
_atom_site_type_symbol
_atom_site_symmetry_multiplicity
_atom_site_Wyckoff_label
_atom_site_fract_x
_atom_site_fract_y
_atom_site_fract_z
_atom_site_occupancy
Nb1 Nb   8 f 0.35924 0.25918 0.75227  1.00000
O1  O    4 e 0.00000 0.11054 0.25000  1.00000
O2  O    8 f 0.11111 0.44537 -0.02568 1.00000
O3  O    8 f 0.20585 0.07051 0.62471  1.00000
