data_HgO2_mS6
_audit_creation_method FINDSYM
 
_cell_length_a    6.0756682800
_cell_length_b    4.0660362579
_cell_length_c    4.5917436400
_cell_angle_alpha 90.0000000000
_cell_angle_beta  127.0933592155
_cell_angle_gamma 90.0000000000
 
_symmetry_space_group_name_H-M "C 1 2/m 1"
_symmetry_Int_Tables_number 12
_space_group.reference_setting '012:-C 2y'
_space_group.transform_Pp_abc a,b,c;0,0,0
 
loop_
_space_group_symop_id
_space_group_symop_operation_xyz
1 x,y,z
2 -x,y,-z
3 -x,-y,-z
4 x,-y,z
5 x+1/2,y+1/2,z
6 -x+1/2,y+1/2,-z
7 -x+1/2,-y+1/2,-z
8 x+1/2,-y+1/2,z
 
loop_
_atom_site_label
_atom_site_type_symbol
_atom_site_symmetry_multiplicity
_atom_site_Wyckoff_label
_atom_site_fract_x
_atom_site_fract_y
_atom_site_fract_z
_atom_site_occupancy
Hg1 Hg   2 a 0.00000 0.00000 0.00000 1.00000
O1  O    4 i 0.43813 0.00000 0.30830 1.00000
