data_VO2_mP12
_audit_creation_method FINDSYM
 
_cell_length_a    5.3607304400
_cell_length_b    4.4568429600
_cell_length_c    5.3722253800
_cell_angle_alpha 90.0000000000
_cell_angle_beta  112.0369000000
_cell_angle_gamma 90.0000000000
 
_symmetry_space_group_name_H-M "P 1 21 1"
_symmetry_Int_Tables_number 4
_space_group.reference_setting '004:P 2yb'
_space_group.transform_Pp_abc a,b,c;0,0,0
 
loop_
_space_group_symop_id
_space_group_symop_operation_xyz
1 x,y,z
2 -x,y+1/2,-z
 
loop_
_atom_site_label
_atom_site_type_symbol
_atom_site_symmetry_multiplicity
_atom_site_Wyckoff_label
_atom_site_fract_x
_atom_site_fract_y
_atom_site_fract_z
_atom_site_occupancy
V1_a V    2 a 0.47775 -0.01507 0.24671 1.00000
V2_b V   2 a 0.02226 0.01497  0.75329 1.00000
O1  O    2 a 0.15400 0.20036  0.10143 1.00000
O2  O    2 a 0.34602 0.79967  0.89856 1.00000
O3  O    2 a 0.35767 0.70376  0.40236 1.00000
O4  O    2 a 0.14232 0.29631  0.59770 1.00000
