data_MoO2_mP12
_audit_creation_method FINDSYM
 
_cell_length_a    5.5573657100
_cell_length_b    4.8655436600
_cell_length_c    5.6458582177
_cell_angle_alpha 90.0000000000
_cell_angle_beta  119.3191742047
_cell_angle_gamma 90.0000000000
 
_symmetry_space_group_name_H-M "P 1 21 1"
_symmetry_Int_Tables_number 4
_space_group.reference_setting '004:P 2yb'
_space_group.transform_Pp_abc a,b,c;0,0,0
 
loop_
_space_group_symop_id
_space_group_symop_operation_xyz
1 x,y,z
2 -x,y+1/2,-z
 
loop_
_atom_site_label
_atom_site_type_symbol
_atom_site_symmetry_multiplicity
_atom_site_Wyckoff_label
_atom_site_fract_x
_atom_site_fract_y
_atom_site_fract_z
_atom_site_occupancy
Mo1_a Mo   2 a 0.26683 0.01117  0.03641 1.00000
Mo2_b Mo   2 a 0.73316 -0.01120 0.46358 1.00000
O1  O    2 a 0.38964 0.78095  0.37103 1.00000
O2  O    2 a 0.61035 0.21906  0.12898 1.00000
O3  O    2 a 0.10846 0.30099  0.15953 1.00000
O4  O    2 a 0.89156 0.69902  0.34047 1.00000