data_Fe2O3_cI80
_audit_creation_method FINDSYM
 
_cell_length_a    9.4218552138
_cell_length_b    9.3930321551
_cell_length_c    9.4363743310
_cell_angle_alpha 90.0000000000
_cell_angle_beta  90.0000000000
_cell_angle_gamma 90.0000000000
 
_symmetry_space_group_name_H-M "I 21 21 21"
_symmetry_Int_Tables_number 24
_space_group.reference_setting '024:I 2b 2c'
_space_group.transform_Pp_abc a,b,c;0,0,0
 
loop_
_space_group_symop_id
_space_group_symop_operation_xyz
1 x,y,z
2 x,-y,-z+1/2
3 -x+1/2,y,-z
4 -x,-y+1/2,z
5 x+1/2,y+1/2,z+1/2
6 x+1/2,-y+1/2,-z
7 -x,y+1/2,-z+1/2
8 -x+1/2,-y,z+1/2
 
loop_
_atom_site_label
_atom_site_type_symbol
_atom_site_symmetry_multiplicity
_atom_site_Wyckoff_label
_atom_site_fract_x
_atom_site_fract_y
_atom_site_fract_z
_atom_site_occupancy
Fe1_a Fe   8 d 0.50108  0.50040  0.49917 1.00000
Fe2_b Fe   4 a 0.28372  0.00000  0.25000 1.00000
Fe3_b Fe   4 b 0.25000  0.28609  0.00000 1.00000
Fe4_b Fe   4 c 0.00000  0.25000  0.28411 1.00000
Fe5_b Fe   4 a 0.78584  0.00000  0.25000 1.00000
Fe6_a Fe   4 b 0.25000  0.78459  0.00000 1.00000
Fe7_a Fe   4 c 0.00000  0.25000  0.78691 1.00000
O1  O    8 d 0.64165  0.63207  0.40669 1.00000
O2  O    8 d -0.09273 0.14080  0.12997 1.00000
O3  O    8 d 0.13044  -0.09297 0.14088 1.00000
O4  O    8 d 0.85729  0.86745  0.09608 1.00000
O5  O    8 d 0.59632  0.35862  0.36670 1.00000
O6  O    8 d 0.36802  0.59415  0.35752 1.00000
