data_Ag3O4_mP14
_audit_creation_method FINDSYM
 
_cell_length_a    3.6205880400
_cell_length_b    9.2545010500
_cell_length_c    5.7087730800
_cell_angle_alpha 90.0000000000
_cell_angle_beta  106.8739650000
_cell_angle_gamma 90.0000000000
 
_symmetry_space_group_name_H-M "P 1 21/c 1"
_symmetry_Int_Tables_number 14
_space_group.reference_setting '014:-P 2ybc'
_space_group.transform_Pp_abc a,b,c;0,0,0
 
loop_
_space_group_symop_id
_space_group_symop_operation_xyz
1 x,y,z
2 -x,y+1/2,-z+1/2
3 -x,-y,-z
4 x,-y+1/2,z+1/2
 
loop_
_atom_site_label
_atom_site_type_symbol
_atom_site_symmetry_multiplicity
_atom_site_Wyckoff_label
_atom_site_fract_x
_atom_site_fract_y
_atom_site_fract_z
_atom_site_occupancy
Ag1 Ag   2 a 0.00000  0.00000  0.00000 1.00000
Ag2 Ag   4 e 0.71386  0.85719  0.44779 1.00000
O1  O    4 e 0.52921  -0.04693 0.72225 1.00000
O2  O    4 e -0.04426 0.68685  0.66840 1.00000
