data_ReO2_oP12
_audit_creation_method FINDSYM
 
_cell_length_a    4.6058623600
_cell_length_b    4.8362397800
_cell_length_c    5.6880429100
_cell_angle_alpha 90.0000000000
_cell_angle_beta  90.0000000000
_cell_angle_gamma 90.0000000000
 
_symmetry_space_group_name_H-M "P 21 21 2"
_symmetry_Int_Tables_number 18
_space_group.reference_setting '018:P 2 2ab'
_space_group.transform_Pp_abc a,b,c;0,0,0
 
loop_
_space_group_symop_id
_space_group_symop_operation_xyz
1 x,y,z
2 x+1/2,-y+1/2,-z
3 -x+1/2,y+1/2,-z
4 -x,-y,z
 
loop_
_atom_site_label
_atom_site_type_symbol
_atom_site_symmetry_multiplicity
_atom_site_Wyckoff_label
_atom_site_fract_x
_atom_site_fract_y
_atom_site_fract_z
_atom_site_occupancy
Re1_a Re   2 b 0.00000 0.50000 0.14268 1.00000
Re2_b Re   2 a 0.00000 0.00000 0.64266 1.00000
O1  O    4 c 0.34013 0.24198 0.11134 1.00000
O2  O    4 c 0.15984 0.75806 0.38862 1.00000
