data_VO2_mS12
_audit_creation_method FINDSYM
 
_cell_length_a    12.0938642128
_cell_length_b    3.7584849047
_cell_length_c    6.3468478900
_cell_angle_alpha 90.0000000000
_cell_angle_beta  106.1960602773
_cell_angle_gamma 90.0000000000
 
_symmetry_space_group_name_H-M "C 1 m 1"
_symmetry_Int_Tables_number 8
_space_group.reference_setting '008:C -2y'
_space_group.transform_Pp_abc a,b,c;0,0,0
 
loop_
_space_group_symop_id
_space_group_symop_operation_xyz
1 x,y,z
2 x,-y,z
3 x+1/2,y+1/2,z
4 x+1/2,-y+1/2,z
 
loop_
_atom_site_label
_atom_site_type_symbol
_atom_site_symmetry_multiplicity
_atom_site_Wyckoff_label
_atom_site_fract_x
_atom_site_fract_y
_atom_site_fract_z
_atom_site_occupancy
V1_a V   2 a 0.79039  0.00000 0.71376  1.00000
V2_b  V    2 a 0.20961  0.00000 0.28624  1.00000
V3_b  V    2 a -0.09327 0.00000 0.29189  1.00000
V4_a V   2 a 0.09327  0.00000 0.70811  1.00000
O1  O    2 a 0.63569  0.00000 0.71323  1.00000
O2  O    2 a 0.36431  0.00000 0.28677  1.00000
O3  O    2 a 0.86086  0.00000 -0.01919 1.00000
O4  O    2 a 0.13914  0.00000 0.01919  1.00000
O5  O    2 a -0.05279 0.00000 0.63885  1.00000
O6  O    2 a 0.05279  0.00000 0.36115  1.00000
O7  O    2 a 0.74907  0.00000 0.36051  1.00000
O8  O    2 a 0.25093  0.00000 0.63949  1.00000
