data_MnO2_tI24
_audit_creation_method FINDSYM
 
_cell_length_a    13.7269765192
_cell_length_b    2.8616564162
_cell_length_c    9.7046087357
_cell_angle_alpha 90.0000000000
_cell_angle_beta  134.9816760314
_cell_angle_gamma 90.0000000000
 
_symmetry_space_group_name_H-M "C 1 2/m 1"
_symmetry_Int_Tables_number 12
_space_group.reference_setting '012:-C 2y'
_space_group.transform_Pp_abc a,b,c;0,0,0
 
loop_
_space_group_symop_id
_space_group_symop_operation_xyz
1 x,y,z
2 -x,y,-z
3 -x,-y,-z
4 x,-y,z
5 x+1/2,y+1/2,z
6 -x+1/2,y+1/2,-z
7 -x+1/2,-y+1/2,-z
8 x+1/2,-y+1/2,z
 
loop_
_atom_site_label
_atom_site_type_symbol
_atom_site_symmetry_multiplicity
_atom_site_Wyckoff_label
_atom_site_fract_x
_atom_site_fract_y
_atom_site_fract_z
_atom_site_occupancy
Mn1_a Mn   4 i 0.16702 0.00000 0.81819 1.00000
Mn2_b Mn   4 i 0.34893 0.00000 0.51603 1.00000
O1  O    4 i 0.20419 0.00000 0.04866 1.00000
O2  O    4 i 0.15566 0.00000 0.35973 1.00000
O3  O    4 i 0.45755 0.00000 0.29552 1.00000
O4  O    4 i 0.16197 0.00000 0.61952 1.00000

