data_CoO_hP4
_audit_creation_method FINDSYM
 
_cell_length_a    3.2756820400
_cell_length_b    5.6500896500
_cell_length_c    5.2221828100
_cell_angle_alpha 90.0000000000
_cell_angle_beta  90.0000000000
_cell_angle_gamma 90.0000000000
 
_symmetry_space_group_name_H-M "P m c 21"
_symmetry_Int_Tables_number 26
_space_group.reference_setting '026:P 2c -2'
_space_group.transform_Pp_abc a,b,c;0,0,0
 
loop_
_space_group_symop_id
_space_group_symop_operation_xyz
1 x,y,z
2 -x,-y,z+1/2
3 -x,y,z
4 x,-y,z+1/2
 
loop_
_atom_site_label
_atom_site_type_symbol
_atom_site_symmetry_multiplicity
_atom_site_Wyckoff_label
_atom_site_fract_x
_atom_site_fract_y
_atom_site_fract_z
_atom_site_occupancy
Co1_a Co   2 a 0.00000 0.66664 -0.00351 1.00000
Co2_b Co   2 b 0.50000 0.16664 -0.00351 1.00000
O1  O    2 a 0.00000 0.66647 0.37851  1.00000
O2  O    2 b 0.50000 0.16647 0.37851  1.00000
