data_WO3_aP32
_audit_creation_method FINDSYM
 
_cell_length_a    7.4848585200
_cell_length_b    7.7513245000
_cell_length_c    7.8702648900
_cell_angle_alpha 90.0019330000
_cell_angle_beta  90.0004600000
_cell_angle_gamma 90.0033130000
 
_symmetry_space_group_name_H-M "P -1"
_symmetry_Int_Tables_number 2
_space_group.reference_setting '002:-P 1'
_space_group.transform_Pp_abc a,b,c;0,0,0
 
loop_
_space_group_symop_id
_space_group_symop_operation_xyz
1 x,y,z
2 -x,-y,-z
 
loop_
_atom_site_label
_atom_site_type_symbol
_atom_site_symmetry_multiplicity
_atom_site_Wyckoff_label
_atom_site_fract_x
_atom_site_fract_y
_atom_site_fract_z
_atom_site_occupancy
W1  W   2 i 0.25879 0.03228  0.28120  1.00000
W2  W   2 i 0.25884 0.53227  0.21879  1.00000
W3  W   2 i 0.24120 0.03231  0.78116  1.00000
W4  W   2 i 0.24113 0.53231  0.71882  1.00000
O1  O   2 i 0.00082 -0.00171 0.23972  1.00000
O2  O   2 i 0.50082 0.50164  0.23983  1.00000
O3  O   2 i 0.00081 0.49840  0.26020  1.00000
O4  O   2 i 0.50081 0.00172  0.26024  1.00000
O5  O   2 i 0.25082 0.25858  0.25582  1.00000
O6  O   2 i 0.25096 0.75856  0.24424  1.00000
O7  O   2 i 0.24916 0.25855  0.75513  1.00000
O8  O   2 i 0.24900 0.75856  0.74485  1.00000
O9  O   2 i 0.25853 0.01527  0.00270  1.00000
O10 O   2 i 0.25843 0.51525  0.49727  1.00000
O11 O   2 i 0.24154 0.51458  -0.00273 1.00000
O12 O   2 i 0.24147 0.01455  0.50269  1.00000
