data_Fe2O3_oP40
_audit_creation_method FINDSYM
 
_cell_length_a    5.0996825400
_cell_length_b    8.7926450600
_cell_length_c    9.5239861600
_cell_angle_alpha 90.0000000000
_cell_angle_beta  90.0000000000
_cell_angle_gamma 90.0000000000
 
_symmetry_space_group_name_H-M "P n a 21"
_symmetry_Int_Tables_number 33
_space_group.reference_setting '033:P 2c -2n'
_space_group.transform_Pp_abc a,b,c;0,0,0
 
loop_
_space_group_symop_id
_space_group_symop_operation_xyz
1 x,y,z
2 -x,-y,z+1/2
3 -x+1/2,y+1/2,z+1/2
4 x+1/2,-y+1/2,z
 
loop_
_atom_site_label
_atom_site_type_symbol
_atom_site_symmetry_multiplicity
_atom_site_Wyckoff_label
_atom_site_fract_x
_atom_site_fract_y
_atom_site_fract_z
_atom_site_occupancy
Fe1_a Fe   4 a 0.80483 0.66020  0.00202 1.00000
Fe2_b Fe   4 a 0.69852 0.84876  0.72678 1.00000
Fe3_b Fe   4 a 0.68685 0.85175  0.30884 1.00000
Fe4_a Fe   4 a 0.68543 0.53456  0.51352 1.00000
O1  O    4 a 0.65205 0.83921  0.11318 1.00000
O2  O    4 a 0.51455 -0.01361 0.87937 1.00000
O3  O    4 a 0.53233 0.66951  0.37345 1.00000
O4  O    4 a 0.52296 0.32682  0.38336 1.00000
O5  O    4 a 0.64942 0.16792  0.13995 1.00000
O6  O    4 a 0.65036 0.49700  0.10893 1.00000
