data_V2O3_hR10
_audit_creation_method FINDSYM
 
_cell_length_a    5.0533287504
_cell_length_b    5.0533287504
_cell_length_c    13.8212998238
_cell_angle_alpha 90.0000000000
_cell_angle_beta  90.0000000000
_cell_angle_gamma 120.0000000000
 
_symmetry_space_group_name_H-M "R 3 c (hexagonal axes)"
_symmetry_Int_Tables_number 161
_space_group.reference_setting '161:R 3 -2"c'
_space_group.transform_Pp_abc a,b,c;0,0,0
 
loop_
_space_group_symop_id
_space_group_symop_operation_xyz
1 x,y,z
2 -y,x-y,z
3 -x+y,-x,z
4 -y,-x,z+1/2
5 x,x-y,z+1/2
6 -x+y,y,z+1/2
7 x+1/3,y+2/3,z+2/3
8 -y+1/3,x-y+2/3,z+2/3
9 -x+y+1/3,-x+2/3,z+2/3
10 -y+1/3,-x+2/3,z+1/6
11 x+1/3,x-y+2/3,z+1/6
12 -x+y+1/3,y+2/3,z+1/6
13 x+2/3,y+1/3,z+1/3
14 -y+2/3,x-y+1/3,z+1/3
15 -x+y+2/3,-x+1/3,z+1/3
16 -y+2/3,-x+1/3,z+5/6
17 x+2/3,x-y+1/3,z+5/6
18 -x+y+2/3,y+1/3,z+5/6
 
loop_
_atom_site_label
_atom_site_type_symbol
_atom_site_symmetry_multiplicity
_atom_site_Wyckoff_label
_atom_site_fract_x
_atom_site_fract_y
_atom_site_fract_z
_atom_site_occupancy
V1_a  V    6 a 0.00000 0.00000 0.35231 1.00000
V2_b V   6 a 0.00000 0.00000 0.14770 1.00000
O1  O   18 b 0.69805 0.69805 0.25000 1.00000
