data_ReO2_mP12
_audit_creation_method FINDSYM
 
_cell_length_a    5.5541492600
_cell_length_b    4.8637286400
_cell_length_c    5.6064262500
_cell_angle_alpha 90.0000000000
_cell_angle_beta  118.0775010000
_cell_angle_gamma 90.0000000000
 
_symmetry_space_group_name_H-M "P 1 21 1"
_symmetry_Int_Tables_number 4
_space_group.reference_setting '004:P 2yb'
_space_group.transform_Pp_abc a,b,c;0,0,0
 
loop_
_space_group_symop_id
_space_group_symop_operation_xyz
1 x,y,z
2 -x,y+1/2,-z
 
loop_
_atom_site_label
_atom_site_type_symbol
_atom_site_symmetry_multiplicity
_atom_site_Wyckoff_label
_atom_site_fract_x
_atom_site_fract_y
_atom_site_fract_z
_atom_site_occupancy
Re1_a Re   2 a 0.76469 0.00833  0.53126  1.00000
Re2_b Re   2 a 0.23530 -0.00838 -0.03125 1.00000
O1  O    2 a 0.88112 0.80330  0.87821  1.00000
O2  O    2 a 0.11885 0.19673  0.62183  1.00000
O3  O    2 a 0.61020 0.32281  0.65949  1.00000
O4  O    2 a 0.38983 0.67721  0.84049  1.00000
