data_Fe3O4_mP56
_audit_creation_method FINDSYM
 
_cell_length_a    5.9829003400
_cell_length_b    5.9763930900
_cell_length_c    16.8098653300
_cell_angle_alpha 90.0000000000
_cell_angle_beta  90.0000000000
_cell_angle_gamma 90.0000000000
 
_symmetry_space_group_name_H-M "P 1 2/c 1"
_symmetry_Int_Tables_number 13
_space_group.reference_setting '013:-P 2yc'
_space_group.transform_Pp_abc a,b,c;0,0,0
 
loop_
_space_group_symop_id
_space_group_symop_operation_xyz
1 x,y,z
2 -x,y,-z+1/2
3 -x,-y,-z
4 x,-y,z+1/2
 
loop_
_atom_site_label
_atom_site_type_symbol
_atom_site_symmetry_multiplicity
_atom_site_Wyckoff_label
_atom_site_fract_x
_atom_site_fract_y
_atom_site_fract_z
_atom_site_occupancy
Fe1_a Fe   4 g 0.25000  0.00922  0.56394 1.00000
Fe2_a Fe   4 g 0.24999  0.49947  0.68901 1.00000
Fe3_b Fe   2 c 0.00000  0.50000  0.00000 1.00000
Fe4_b Fe   2 b 0.50000  0.50000  0.00000 1.00000
Fe5_b Fe   2 e 0.00000  -0.00382 0.25000 1.00000
Fe6_b Fe   2 f 0.50000  -0.00382 0.25000 1.00000
Fe7_b Fe   4 g 0.25002  0.26043  0.87988 1.00000
Fe8_b Fe   4 g 0.25000  0.75028  0.87614 1.00000
O1  O    4 g 0.24997  0.26285  0.49795 1.00000
O2  O    4 g 0.25003  0.75701  0.49679 1.00000
O3  O    4 g 0.25000  0.23468  0.75463 1.00000
O4  O    4 g 0.25001  0.77123  0.75038 1.00000
O5  O    4 g -0.00796 0.01301  0.63071 1.00000
O6  O    4 g 0.49203  0.01302  0.86929 1.00000
O7  O    4 g -0.00908 0.49120  0.62763 1.00000
O8  O    4 g 0.49095  0.49120  0.87237 1.00000
