data_Re2O7_oP72
_audit_creation_method FINDSYM
 
_cell_length_a    12.6934672000
_cell_length_b    15.4426190000
_cell_length_c    5.5306627600
_cell_angle_alpha 90.0000000000
_cell_angle_beta  90.0000000000
_cell_angle_gamma 90.0000000000
 
_symmetry_space_group_name_H-M "P 21 21 21"
_symmetry_Int_Tables_number 19
_space_group.reference_setting '019:P 2ac 2ab'
_space_group.transform_Pp_abc a,b,c;0,0,0
 
loop_
_space_group_symop_id
_space_group_symop_operation_xyz
1 x,y,z
2 x+1/2,-y+1/2,-z
3 -x,y+1/2,-z+1/2
4 -x+1/2,-y,z+1/2
 
loop_
_atom_site_label
_atom_site_type_symbol
_atom_site_symmetry_multiplicity
_atom_site_Wyckoff_label
_atom_site_fract_x
_atom_site_fract_y
_atom_site_fract_z
_atom_site_occupancy
Re1 Re   4 a -0.02477 0.86545  0.07650  1.00000
Re2 Re   4 a 0.76401  0.86171  0.57658  1.00000
Re3 Re   4 a 0.02314  0.64069  0.82695  1.00000
Re4 Re   4 a 0.72017  0.63717  0.31670  1.00000
O1  O    4 a 0.87184  0.83843  0.76349  1.00000
O2  O    4 a 0.08820  0.86374  0.78987  1.00000
O3  O    4 a -0.00100 0.73338  0.00953  1.00000
O4  O    4 a 0.07560  0.87024  0.27733  1.00000
O5  O    4 a -0.04723 -0.02912 0.01302  1.00000
O6  O    4 a -0.00502 0.54747  -0.02651 1.00000
O7  O    4 a -0.05645 0.64682  0.58255  1.00000
O8  O    4 a 0.86852  0.84024  0.26493  1.00000
O9  O    4 a 0.15407  0.64217  0.71458  1.00000
O10 O    4 a 0.74331  0.72846  0.50391  1.00000
O11 O    4 a 0.66313  0.86065  0.77698  1.00000
O12 O    4 a 0.78036  -0.03160 0.52381  1.00000
O13 O    4 a 0.75186  0.54386  0.45900  1.00000
O14 O    4 a 0.79835  0.64668  0.07049  1.00000
