data_Mn2O7_mP72
_audit_creation_method FINDSYM
 
_cell_length_a    6.9854801600
_cell_length_b    17.5043966600
_cell_length_c    9.5984202800
_cell_angle_alpha 90.0000000000
_cell_angle_beta  100.2109930000
_cell_angle_gamma 90.0000000000
 
_symmetry_space_group_name_H-M "P 1 21/c 1"
_symmetry_Int_Tables_number 14
_space_group.reference_setting '014:-P 2ybc'
_space_group.transform_Pp_abc a,b,c;0,0,0
 
loop_
_space_group_symop_id
_space_group_symop_operation_xyz
1 x,y,z
2 -x,y+1/2,-z+1/2
3 -x,-y,-z
4 x,-y+1/2,z+1/2
 
loop_
_atom_site_label
_atom_site_type_symbol
_atom_site_symmetry_multiplicity
_atom_site_Wyckoff_label
_atom_site_fract_x
_atom_site_fract_y
_atom_site_fract_z
_atom_site_occupancy
Mn1 Mn   4 e 0.35829  0.75523  0.04365  1.00000
Mn2 Mn   4 e -0.06853 0.75512  0.88800  1.00000
Mn3 Mn   4 e 0.79165  0.00471  0.17387  1.00000
Mn4 Mn   4 e 0.21860  0.00427  0.32877  1.00000
O1  O    4 e 0.14444  0.70815  -0.03343 1.00000
O2  O    4 e 0.42650  0.80535  -0.07178 1.00000
O3  O    4 e 0.50999  0.69284  0.09941  1.00000
O4  O    4 e 0.31059  0.80597  0.16576  1.00000
O5  O    4 e 0.86747  0.80828  0.00076  1.00000
O6  O    4 e 0.77704  0.69283  0.83780  1.00000
O7  O    4 e -0.02173 0.80285  0.76162  1.00000
O8  O    4 e 0.00461  -0.04264 0.25143  1.00000
O9  O    4 e 0.83789  0.05288  0.04786  1.00000
O10 O    4 e 0.63673  -0.05735 0.12335  1.00000
O11 O    4 e 0.72867  0.05753  0.28753  1.00000
O12 O    4 e 0.28705  0.05455  0.21365  1.00000
O13 O    4 e 0.37016  -0.05821 0.38432  1.00000
O14 O    4 e 0.17063  0.05483  0.45101  1.00000
