data_NbO2_tI96
_audit_creation_method FINDSYM
 
_cell_length_a    13.7906393031
_cell_length_b    13.7906393031
_cell_length_c    5.9560433646
_cell_angle_alpha 90.0000000000
_cell_angle_beta  90.0000000000
_cell_angle_gamma 90.0000000000
 
_symmetry_space_group_name_H-M "I 41/a (origin choice 2)"
_symmetry_Int_Tables_number 88
_space_group.reference_setting '088:-I 4ad'
_space_group.transform_Pp_abc a,b,c;0,0,0
 
loop_
_space_group_symop_id
_space_group_symop_operation_xyz
1 x,y,z
2 -x,-y+1/2,z
3 -y+3/4,x+1/4,z+1/4
4 y+1/4,-x+1/4,z+1/4
5 -x,-y,-z
6 x,y+1/2,-z
7 y+1/4,-x+3/4,-z+3/4
8 -y+3/4,x+3/4,-z+3/4
9 x+1/2,y+1/2,z+1/2
10 -x+1/2,-y,z+1/2
11 -y+1/4,x+3/4,z+3/4
12 y+3/4,-x+3/4,z+3/4
13 -x+1/2,-y+1/2,-z+1/2
14 x+1/2,y,-z+1/2
15 y+3/4,-x+1/4,-z+1/4
16 -y+1/4,x+1/4,-z+1/4
 
loop_
_atom_site_label
_atom_site_type_symbol
_atom_site_symmetry_multiplicity
_atom_site_Wyckoff_label
_atom_site_fract_x
_atom_site_fract_y
_atom_site_fract_z
_atom_site_occupancy
Nb1 Nb  16 f 0.37536 0.13572  0.22388 1.00000
Nb2 Nb  16 f 0.87535 0.61365  0.27898 1.00000
O1  O   16 f 0.87536 0.76274  0.24617 1.00000
O2  O   16 f 0.37481 0.27574  0.24988 1.00000
O3  O   16 f 0.87485 0.47431  0.25041 1.00000
O4  O   16 f 0.37530 -0.01355 0.25380 1.00000
