data_gamma_Ti3O5_mS32
_audit_creation_method FINDSYM
 
_cell_length_a    5.1738924400
_cell_length_b    5.7362503000
_cell_length_c    7.0568621500
_cell_angle_alpha 108.9787900000
_cell_angle_beta  90.7516170000
_cell_angle_gamma 116.1488460000
 
_symmetry_space_group_name_H-M "P 1"
_symmetry_Int_Tables_number 1
_space_group.reference_setting '001:P 1'
_space_group.transform_Pp_abc a,b,c;0,0,0
 
loop_
_space_group_symop_id
_space_group_symop_operation_xyz
1 x,y,z
 
loop_
_atom_site_label
_atom_site_type_symbol
_atom_site_symmetry_multiplicity
_atom_site_Wyckoff_label
_atom_site_fract_x
_atom_site_fract_y
_atom_site_fract_z
_atom_site_occupancy
Ti1_a Ti   1 a 0.85776  0.73252  0.77229  1.00000
Ti2 Ti   1 a 0.13522  0.27214  0.72378  1.00000
Ti3 Ti   1 a 0.13454  0.26781  0.22373  1.00000
Ti4_b Ti   1 a 0.86836  0.74337  0.27924  1.00000
Ti5_b Ti   1 a 0.50613  0.00389  0.00054  1.00000
Ti6_a Ti   1 a 0.49720  -0.00379 0.49685  1.00000
O1  O    1 a 0.51464  0.37389  0.66674  1.00000
O2  O    1 a 0.16061  0.61331  0.83832  1.00000
O3  O    1 a 0.45212  0.60176  0.34155  1.00000
O4  O    1 a 0.85742  0.36611  0.15409  1.00000
O5  O    1 a -0.06266 0.17208  0.44941  1.00000
O6  O    1 a 0.76239  0.84019  0.06087  1.00000
O7  O    1 a 0.07796  0.84289  0.55354  1.00000
O8  O    1 a 0.22248  0.15654  -0.05465 1.00000
O9  O    1 a 0.30653  0.00879  0.25041  1.00000
O10 O    1 a 0.70930  0.00849  0.74329  1.00000
